[root]
type=Root
children=system
eventq_index=0
full_system=false
sim_quantum=0
time_sync_enable=false
time_sync_period=100000000000
time_sync_spin_threshold=100000000

[system]
type=System
children=clk_domain cpu cpu_clk_domain cpu_voltage_domain l2 mem_ctrls membus tol2bus voltage_domain
boot_osflags=a
cache_line_size=32
clk_domain=system.clk_domain
eventq_index=0
init_param=0
kernel=
load_addr_mask=1099511627775
load_offset=0
mem_mode=timing
mem_ranges=0:536870911
memories=system.mem_ctrls
num_work_ids=16
readfile=
symbolfile=
work_begin_ckpt_count=0
work_begin_cpu_id_exit=-1
work_begin_exit_count=0
work_cpus_ckpt_count=0
work_end_ckpt_count=0
work_end_exit_count=0
work_item_id=-1
system_port=system.membus.slave[0]

[system.clk_domain]
type=SrcClockDomain
clock=1000
eventq_index=0
voltage_domain=system.voltage_domain

[system.cpu]
type=TimingSimpleCPU
children=dcache dtb icache interrupts isa itb tracer workload
branchPred=Null
checker=Null
clk_domain=system.cpu_clk_domain
cpu_id=0
do_checkpoint_insts=true
do_quiesce=true
do_statistics_insts=true
dtb=system.cpu.dtb
eventq_index=0
function_trace=false
function_trace_start=0
interrupts=system.cpu.interrupts
isa=system.cpu.isa
itb=system.cpu.itb
max_insts_all_threads=0
max_insts_any_thread=0
max_loads_all_threads=0
max_loads_any_thread=0
numThreads=1
profile=0
progress_interval=0
simpoint_start_insts=
socket_id=0
switched_out=false
system=system
tracer=system.cpu.tracer
workload=system.cpu.workload
dcache_port=system.cpu.dcache.cpu_side
icache_port=system.cpu.icache.cpu_side

[system.cpu.dcache]
type=BaseCache
children=tags
addr_ranges=0:18446744073709551615
assoc=2
clk_domain=system.cpu_clk_domain
eventq_index=0
forward_snoops=true
hit_latency=2
is_top_level=true
max_miss_count=0
mshrs=4
prefetch_on_access=false
prefetcher=Null
response_latency=2
sequential_access=false
size=1024
system=system
tags=system.cpu.dcache.tags
tgts_per_mshr=20
two_queue=false
write_buffers=8
cpu_side=system.cpu.dcache_port
mem_side=system.tol2bus.slave[1]

[system.cpu.dcache.tags]
type=LRU
assoc=2
block_size=32
clk_domain=system.cpu_clk_domain
eventq_index=0
hit_latency=2
sequential_access=false
size=1024

[system.cpu.dtb]
type=AlphaTLB
eventq_index=0
size=64

[system.cpu.icache]
type=BaseCache
children=tags
addr_ranges=0:18446744073709551615
assoc=1
clk_domain=system.cpu_clk_domain
eventq_index=0
forward_snoops=true
hit_latency=2
is_top_level=true
max_miss_count=0
mshrs=4
prefetch_on_access=false
prefetcher=Null
response_latency=2
sequential_access=false
size=2048
system=system
tags=system.cpu.icache.tags
tgts_per_mshr=20
two_queue=false
write_buffers=8
cpu_side=system.cpu.icache_port
mem_side=system.tol2bus.slave[0]

[system.cpu.icache.tags]
type=LRU
assoc=1
block_size=32
clk_domain=system.cpu_clk_domain
eventq_index=0
hit_latency=2
sequential_access=false
size=2048

[system.cpu.interrupts]
type=AlphaInterrupts
eventq_index=0

[system.cpu.isa]
type=AlphaISA
eventq_index=0
system=system

[system.cpu.itb]
type=AlphaTLB
eventq_index=0
size=48

[system.cpu.tracer]
type=ExeTracer
eventq_index=0

[system.cpu.workload]
type=LiveProcess
cmd=./Benchmarks/basicmath/basicmath_small
cwd=/home/paoconno/project2/gem5-cse420
egid=100
env=
errout=cerr
euid=100
eventq_index=0
executable=./Benchmarks/basicmath/basicmath_small
gid=100
input=cin
max_stack_size=67108864
output=cout
pid=100
ppid=99
simpoint=0
system=system
uid=100

[system.cpu_clk_domain]
type=SrcClockDomain
clock=500
eventq_index=0
voltage_domain=system.cpu_voltage_domain

[system.cpu_voltage_domain]
type=VoltageDomain
eventq_index=0
voltage=1.000000

[system.l2]
type=BaseCache
children=tags
addr_ranges=0:18446744073709551615
assoc=16
clk_domain=system.cpu_clk_domain
eventq_index=0
forward_snoops=true
hit_latency=20
is_top_level=false
max_miss_count=0
mshrs=20
prefetch_on_access=false
prefetcher=Null
response_latency=20
sequential_access=false
size=16384
system=system
tags=system.l2.tags
tgts_per_mshr=12
two_queue=false
write_buffers=8
cpu_side=system.tol2bus.master[0]
mem_side=system.membus.slave[1]

[system.l2.tags]
type=LRU
assoc=16
block_size=32
clk_domain=system.cpu_clk_domain
eventq_index=0
hit_latency=20
sequential_access=false
size=16384

[system.mem_ctrls]
type=DRAMCtrl
activation_limit=4
addr_mapping=RoRaBaChCo
banks_per_rank=8
burst_length=8
channels=1
clk_domain=system.clk_domain
conf_table_reported=true
device_bus_width=8
device_rowbuffer_size=1024
devices_per_rank=8
eventq_index=0
in_addr_map=true
max_accesses_per_row=16
mem_sched_policy=frfcfs
min_writes_per_switch=16
null=false
page_policy=open_adaptive
range=0:536870911
ranks_per_channel=2
read_buffer_size=32
static_backend_latency=10000
static_frontend_latency=10000
tBURST=5000
tCK=1250
tCL=13750
tRAS=35000
tRCD=13750
tREFI=7800000
tRFC=260000
tRP=13750
tRRD=6000
tRTP=7500
tRTW=2500
tWR=15000
tWTR=7500
tXAW=30000
write_buffer_size=64
write_high_thresh_perc=85
write_low_thresh_perc=50
port=system.membus.master[0]

[system.membus]
type=CoherentBus
clk_domain=system.clk_domain
eventq_index=0
header_cycles=1
system=system
use_default_range=false
width=8
master=system.mem_ctrls.port
slave=system.system_port system.l2.mem_side

[system.tol2bus]
type=CoherentBus
clk_domain=system.cpu_clk_domain
eventq_index=0
header_cycles=1
system=system
use_default_range=false
width=32
master=system.l2.cpu_side
slave=system.cpu.icache.mem_side system.cpu.dcache.mem_side

[system.voltage_domain]
type=VoltageDomain
eventq_index=0
voltage=1.000000

